* LLQNA201212T1R0     SPICE MODEL  ( General Type )
*--------------------------------------------------------------------------------------------------------
* Model Generated by TAIYO YUDEN Corporation (http://www.ty-top.com)
* Version 3.0
* TAIYO YUDEN Control No. 180123NI43EB-FBB
* Copyright(c) 2007 TAIYO YUDEN CO.,LTD. All Rights Reserved.
*--------------------------------------------------------------------------------------------------------
*
* Product Description (link to TY-COMPAS)
* https://ds.yuden.co.jp/TYCOMPAS/or/detail?pn=LLQNA201212T1R0M&u=M
*
* Products Name : Inductors
*
* Characteristics :
*     Inductance : 1.0 uH , SRF(min) : 100 MHz , DC Resistance(max) : 0.195 Ohm
*     Rated Current : Saturation :500 mA , Temp Rise : 900 mA
*     Case Size : 2.0 x 1.25 / 0.079 x 0.049 [mm/inch] , Thickness : 1.25 / 0.049 [mm/inch]
*     (Conditions: Temperature = 25 degC , DC Bias Current/Voltage = 0A / 0V)
*
* External Node Assignments :
*
*  1  o---GGG---o  2
*
*--------------------------------------------------------------------------------------------------------
.SubCkt LLQNA201212T1R0 1 2
****************************
Rdc 1 101 0.15
L0 101 111 0.91613u
L1 111 121 0.46u
R1 111 121 0.1125
L2 121 131 0.23846u
R2 121 131 1.6848
L3 131 2 0.2254u
R3 131 2 25.725
Rp 101 2 2.1k
Cp 101 2 0.1p
****************************
.ends LLQNA201212T1R0



* LLQNA201212T2R2     SPICE MODEL  ( General Type )
*--------------------------------------------------------------------------------------------------------
* Model Generated by TAIYO YUDEN Corporation (http://www.ty-top.com)
* Version 3.0
* TAIYO YUDEN Control No. 180123NI43EB-FBB
* Copyright(c) 2007 TAIYO YUDEN CO.,LTD. All Rights Reserved.
*--------------------------------------------------------------------------------------------------------
*
* Product Description (link to TY-COMPAS)
* https://ds.yuden.co.jp/TYCOMPAS/or/detail?pn=LLQNA201212T2R2M&u=M
*
* Products Name : Inductors
*
* Characteristics :
*     Inductance : 2.2 uH , SRF(min) : 80 MHz , DC Resistance(max) : 0.299 Ohm
*     Rated Current : Saturation :410 mA , Temp Rise : 770 mA
*     Case Size : 2.0 x 1.25 / 0.079 x 0.049 [mm/inch] , Thickness : 1.25 / 0.049 [mm/inch]
*     (Conditions: Temperature = 25 degC , DC Bias Current/Voltage = 0A / 0V)
*
* External Node Assignments :
*
*  1  o---GGG---o  2
*
*--------------------------------------------------------------------------------------------------------
.SubCkt LLQNA201212T2R2 1 2
****************************
Rdc 1 101 0.23
L0 101 111 1.7113u
L1 111 121 0.4608u
R1 111 121 1.6
L2 121 131 0.31363u
R2 121 131 4.9005
L3 131 2 0.39427u
R3 131 2 54.76
Rp 101 2 3.2k
Cp 101 2 0.43p
****************************
.ends LLQNA201212T2R2



* LLQNA201212T3R3     SPICE MODEL  ( General Type )
*--------------------------------------------------------------------------------------------------------
* Model Generated by TAIYO YUDEN Corporation (http://www.ty-top.com)
* Version 3.0
* TAIYO YUDEN Control No. 180123NI43EB-FBB
* Copyright(c) 2007 TAIYO YUDEN CO.,LTD. All Rights Reserved.
*--------------------------------------------------------------------------------------------------------
*
* Product Description (link to TY-COMPAS)
* https://ds.yuden.co.jp/TYCOMPAS/or/detail?pn=LLQNA201212T3R3M&u=M
*
* Products Name : Inductors
*
* Characteristics :
*     Inductance : 3.3 uH , SRF(min) : 55 MHz , DC Resistance(max) : 0.39 Ohm
*     Rated Current : Saturation :330 mA , Temp Rise : 650 mA
*     Case Size : 2.0 x 1.25 / 0.079 x 0.049 [mm/inch] , Thickness : 1.25 / 0.049 [mm/inch]
*     (Conditions: Temperature = 25 degC , DC Bias Current/Voltage = 0A / 0V)
*
* External Node Assignments :
*
*  1  o---GGG---o  2
*
*--------------------------------------------------------------------------------------------------------
.SubCkt LLQNA201212T3R3 1 2
****************************
Rdc 1 101 0.3
L0 101 111 3.0221u
L1 111 121 0.84672u
R1 111 121 3.528
L2 121 131 0.37632u
R2 121 131 10.192
L3 131 2 0.55488u
R3 131 2 80.92
Rp 101 2 4.5k
Cp 101 2 0.94p
****************************
.ends LLQNA201212T3R3



* LLQNA201212T4R7     SPICE MODEL  ( General Type )
*--------------------------------------------------------------------------------------------------------
* Model Generated by TAIYO YUDEN Corporation (http://www.ty-top.com)
* Version 3.0
* TAIYO YUDEN Control No. 180123NI43EB-FBB
* Copyright(c) 2007 TAIYO YUDEN CO.,LTD. All Rights Reserved.
*--------------------------------------------------------------------------------------------------------
*
* Product Description (link to TY-COMPAS)
* https://ds.yuden.co.jp/TYCOMPAS/or/detail?pn=LLQNA201212T4R7M&u=M
*
* Products Name : Inductors
*
* Characteristics :
*     Inductance : 4.7 uH , SRF(min) : 45 MHz , DC Resistance(max) : 0.52 Ohm
*     Rated Current : Saturation :300 mA , Temp Rise : 580 mA
*     Case Size : 2.0 x 1.25 / 0.079 x 0.049 [mm/inch] , Thickness : 1.25 / 0.049 [mm/inch]
*     (Conditions: Temperature = 25 degC , DC Bias Current/Voltage = 0A / 0V)
*
* External Node Assignments :
*
*  1  o---GGG---o  2
*
*--------------------------------------------------------------------------------------------------------
.SubCkt LLQNA201212T4R7 1 2
****************************
Rdc 1 101 0.4
L0 101 111 4.1145u
L1 111 121 0.83694u
R1 111 121 0.2231
L2 121 131 1.4017u
R2 121 131 7.744
L3 131 2 0.88689u
R3 131 2 67.374
Rp 101 2 5k
Cp 101 2 1.43p
****************************
.ends LLQNA201212T4R7



* LLQNA201212T6R8     SPICE MODEL  ( General Type )
*--------------------------------------------------------------------------------------------------------
* Model Generated by TAIYO YUDEN Corporation (http://www.ty-top.com)
* Version 4.0
* TAIYO YUDEN Control No. 180123NI43EB-FBB
* Copyright(c) 2007 TAIYO YUDEN CO.,LTD. All Rights Reserved.
*--------------------------------------------------------------------------------------------------------
*
* Product Description (link to TY-COMPAS)
* https://ds.yuden.co.jp/TYCOMPAS/or/detail?pn=LLQNA201212T6R8M&u=M
*
* Products Name : Inductors
*
* Characteristics :
*     Inductance : 6.8 uH , SRF(min) : 38 MHz , DC Resistance(max) : 0.611 Ohm
*     Rated Current : Saturation :250 mA , Temp Rise : 540 mA
*     Case Size : 2.0 x 1.25 / 0.079 x 0.049 [mm/inch] , Thickness : 1.25 / 0.049 [mm/inch]
*     (Conditions: Temperature = 25 degC , DC Bias Current/Voltage = 0A / 0V)
*
* External Node Assignments :
*
*  1  o---GGG---o  2
*
*--------------------------------------------------------------------------------------------------------
.SubCkt LLQNA201212T6R8 1 2
****************************
Rdc 1 101 0.47
L0 101 111 6.0753u
L1 111 121 1.2862u
R1 111 121 0.6125
L2 121 131 1.8522u
R2 121 131 10.584
L3 131 2 1.2862u
R3 131 2 110.25
Rp 101 2 7k
Cp 101 2 1.72p
****************************
.ends LLQNA201212T6R8



* LLQNA201212T100     SPICE MODEL  ( General Type )
*--------------------------------------------------------------------------------------------------------
* Model Generated by TAIYO YUDEN Corporation (http://www.ty-top.com)
* Version 3.0
* TAIYO YUDEN Control No. 180123NI43EB-FBB
* Copyright(c) 2007 TAIYO YUDEN CO.,LTD. All Rights Reserved.
*--------------------------------------------------------------------------------------------------------
*
* Product Description (link to TY-COMPAS)
* https://ds.yuden.co.jp/TYCOMPAS/or/detail?pn=LLQNA201212T100K&u=M
*
* Products Name : Inductors
*
* Characteristics :
*     Inductance : 10 uH , SRF(min) : 32 MHz , DC Resistance(max) : 0.91 Ohm
*     Rated Current : Saturation :190 mA , Temp Rise : 440 mA
*     Case Size : 2.0 x 1.25 / 0.079 x 0.049 [mm/inch] , Thickness : 1.25 / 0.049 [mm/inch]
*     (Conditions: Temperature = 25 degC , DC Bias Current/Voltage = 0A / 0V)
*
* External Node Assignments :
*
*  1  o---GGG---o  2
*
*--------------------------------------------------------------------------------------------------------
.SubCkt LLQNA201212T100 1 2
****************************
Rdc 1 101 0.7
L0 101 111 8.6027u
L1 111 121 0.85875u
R1 111 121 0.4375
L2 121 131 2.7823u
R2 121 131 14.175
L3 131 2 1.4963u
R3 131 2 108.9
Rp 101 2 8.5k
Cp 101 2 1.8p
****************************
.ends LLQNA201212T100



* LLQNA201212T100_R     SPICE MODEL  ( General Type )
*--------------------------------------------------------------------------------------------------------
* Model Generated by TAIYO YUDEN Corporation (http://www.ty-top.com)
* Version 3.0
* TAIYO YUDEN Control No. 180123NI43EB-FBB
* Copyright(c) 2007 TAIYO YUDEN CO.,LTD. All Rights Reserved.
*--------------------------------------------------------------------------------------------------------
*
* Product Description (link to TY-COMPAS)
* https://ds.yuden.co.jp/TYCOMPAS/or/detail?pn=LLQNA201212T100KR&u=M
*
* Products Name : Inductors
*
* Characteristics :
*     Inductance : 10 uH , SRF(min) : 32 MHz , DC Resistance(max) : 0.65 Ohm
*     Rated Current : Saturation :200 mA , Temp Rise : 520 mA
*     Case Size : 2.0 x 1.25 / 0.079 x 0.049 [mm/inch] , Thickness : 1.25 / 0.049 [mm/inch]
*     (Conditions: Temperature = 25 degC , DC Bias Current/Voltage = 0A / 0V)
*
* External Node Assignments :
*
*  1  o---GGG---o  2
*
*--------------------------------------------------------------------------------------------------------
.SubCkt LLQNA201212T100_R 1 2
****************************
Rdc 1 101 0.5
L0 101 111 8.595u
L1 111 121 6.0552u
R1 111 121 1.5138
L2 121 131 1.7298u
R2 121 131 9.6102
L3 131 2 1.62u
R3 131 2 126
Rp 101 2 8.6k
Cp 101 2 1.85p
****************************
.ends LLQNA201212T100_R



* LLQNA201212T150     SPICE MODEL  ( General Type )
*--------------------------------------------------------------------------------------------------------
* Model Generated by TAIYO YUDEN Corporation (http://www.ty-top.com)
* Version 3.0
* TAIYO YUDEN Control No. 180123NI43EB-FBB
* Copyright(c) 2007 TAIYO YUDEN CO.,LTD. All Rights Reserved.
*--------------------------------------------------------------------------------------------------------
*
* Product Description (link to TY-COMPAS)
* https://ds.yuden.co.jp/TYCOMPAS/or/detail?pn=LLQNA201212T150K&u=M
*
* Products Name : Inductors
*
* Characteristics :
*     Inductance : 15 uH , SRF(min) : 28 MHz , DC Resistance(max) : 1.69 Ohm
*     Rated Current : Saturation :170 mA , Temp Rise : 320 mA
*     Case Size : 2.0 x 1.25 / 0.079 x 0.049 [mm/inch] , Thickness : 1.25 / 0.049 [mm/inch]
*     (Conditions: Temperature = 25 degC , DC Bias Current/Voltage = 0A / 0V)
*
* External Node Assignments :
*
*  1  o---GGG---o  2
*
*--------------------------------------------------------------------------------------------------------
.SubCkt LLQNA201212T150 1 2
****************************
Rdc 1 101 1.3
L0 101 111 11.865u
L1 111 121 2.1733u
R1 111 121 4.624
L2 121 131 2.7148u
R2 121 131 20.216
L3 131 2 2.0473u
R3 131 2 141.57
Rp 101 2 11k
Cp 101 2 1.65p
****************************
.ends LLQNA201212T150



* LLQNA201212T220     SPICE MODEL  ( General Type )
*--------------------------------------------------------------------------------------------------------
* Model Generated by TAIYO YUDEN Corporation (http://www.ty-top.com)
* Version 3.0
* TAIYO YUDEN Control No. 180123NI43EB-FBB
* Copyright(c) 2007 TAIYO YUDEN CO.,LTD. All Rights Reserved.
*--------------------------------------------------------------------------------------------------------
*
* Product Description (link to TY-COMPAS)
* https://ds.yuden.co.jp/TYCOMPAS/or/detail?pn=LLQNA201212T220K&u=M
*
* Products Name : Inductors
*
* Characteristics :
*     Inductance : 22 uH , SRF(min) : 16 MHz , DC Resistance(max) : 2.21 Ohm
*     Rated Current : Saturation :135 mA , Temp Rise : 280 mA
*     Case Size : 2.0 x 1.25 / 0.079 x 0.049 [mm/inch] , Thickness : 1.25 / 0.049 [mm/inch]
*     (Conditions: Temperature = 25 degC , DC Bias Current/Voltage = 0A / 0V)
*
* External Node Assignments :
*
*  1  o---GGG---o  2
*
*--------------------------------------------------------------------------------------------------------
.SubCkt LLQNA201212T220 1 2
****************************
Rdc 1 101 1.7
L0 101 111 19.971u
L1 111 121 2.8666u
R1 111 121 4.8049
L2 121 131 4.3074u
R2 121 131 28.88
L3 131 2 2.6847u
R3 131 2 234
Rp 101 2 16k
Cp 101 2 1.74p
****************************
.ends LLQNA201212T220



* LLQNA201212T470     SPICE MODEL  ( General Type )
*--------------------------------------------------------------------------------------------------------
* Model Generated by TAIYO YUDEN Corporation (http://www.ty-top.com)
* Version 3.0
* TAIYO YUDEN Control No. 180123NI43EB-FBB
* Copyright(c) 2007 TAIYO YUDEN CO.,LTD. All Rights Reserved.
*--------------------------------------------------------------------------------------------------------
*
* Product Description (link to TY-COMPAS)
* https://ds.yuden.co.jp/TYCOMPAS/or/detail?pn=LLQNA201212T470K&u=M
*
* Products Name : Inductors
*
* Characteristics :
*     Inductance : 47 uH , SRF(min) : 11 MHz , DC Resistance(max) : 4.81 Ohm
*     Rated Current : Saturation :90 mA , Temp Rise : 190 mA
*     Case Size : 2.0 x 1.25 / 0.079 x 0.049 [mm/inch] , Thickness : 1.25 / 0.049 [mm/inch]
*     (Conditions: Temperature = 25 degC , DC Bias Current/Voltage = 0A / 0V)
*
* External Node Assignments :
*
*  1  o---GGG---o  2
*
*--------------------------------------------------------------------------------------------------------
.SubCkt LLQNA201212T470 1 2
****************************
Rdc 1 101 3.7
L0 101 111 41.694u
L1 111 121 4.4661u
R1 111 121 2.9162
L2 121 131 11.86u
R2 121 131 83.246
L3 131 2 3.2407u
R3 131 2 529
Rp 101 2 24.5k
Cp 101 2 1.46p
****************************
.ends LLQNA201212T470



* LLQNA201212T680     SPICE MODEL  ( General Type )
*--------------------------------------------------------------------------------------------------------
* Model Generated by TAIYO YUDEN Corporation (http://www.ty-top.com)
* Version 3.0
* TAIYO YUDEN Control No. 180123NI43EB-FBB
* Copyright(c) 2007 TAIYO YUDEN CO.,LTD. All Rights Reserved.
*--------------------------------------------------------------------------------------------------------
*
* Product Description (link to TY-COMPAS)
* https://ds.yuden.co.jp/TYCOMPAS/or/detail?pn=LLQNA201212T680K&u=M
*
* Products Name : Inductors
*
* Characteristics :
*     Inductance : 68 uH , SRF(min) : 10 MHz , DC Resistance(max) : 7.8 Ohm
*     Rated Current : Saturation :70 mA , Temp Rise : 140 mA
*     Case Size : 2.0 x 1.25 / 0.079 x 0.049 [mm/inch] , Thickness : 1.25 / 0.049 [mm/inch]
*     (Conditions: Temperature = 25 degC , DC Bias Current/Voltage = 0A / 0V)
*
* External Node Assignments :
*
*  1  o---GGG---o  2
*
*--------------------------------------------------------------------------------------------------------
.SubCkt LLQNA201212T680 1 2
****************************
Rdc 1 101 6
L0 101 111 64.393u
L1 111 121 5.2358u
R1 111 121 1.152
L2 121 131 16.035u
R2 121 131 70.56
L3 131 2 5.2358u
R3 131 2 460.8
Rp 101 2 35k
Cp 101 2 1.56p
****************************
.ends LLQNA201212T680



* LLQNA201212T101     SPICE MODEL  ( General Type )
*--------------------------------------------------------------------------------------------------------
* Model Generated by TAIYO YUDEN Corporation (http://www.ty-top.com)
* Version 3.0
* TAIYO YUDEN Control No. 180123NI43EB-FBB
* Copyright(c) 2007 TAIYO YUDEN CO.,LTD. All Rights Reserved.
*--------------------------------------------------------------------------------------------------------
*
* Product Description (link to TY-COMPAS)
* https://ds.yuden.co.jp/TYCOMPAS/or/detail?pn=LLQNA201212T101K&u=M
*
* Products Name : Inductors
*
* Characteristics :
*     Inductance : 100 uH , SRF(min) : 8.0 MHz , DC Resistance(max) : 9.1 Ohm
*     Rated Current : Saturation :60 mA , Temp Rise : 130 mA
*     Case Size : 2.0 x 1.25 / 0.079 x 0.049 [mm/inch] , Thickness : 1.25 / 0.049 [mm/inch]
*     (Conditions: Temperature = 25 degC , DC Bias Current/Voltage = 0A / 0V)
*
* External Node Assignments :
*
*  1  o---GGG---o  2
*
*--------------------------------------------------------------------------------------------------------
.SubCkt LLQNA201212T101 1 2
****************************
Rdc 1 101 7
L0 101 111 88.584u
L1 111 121 8.748u
R1 111 121 4.374
L2 121 131 19.2u
R2 121 131 102.4
L3 131 2 3.468u
R3 131 2 115.6
Rp 101 2 40k
Cp 101 2 1.68p
****************************
.ends LLQNA201212T101



* LLQNA201616T1R0     SPICE MODEL  ( General Type )
*--------------------------------------------------------------------------------------------------------
* Model Generated by TAIYO YUDEN Corporation (http://www.ty-top.com)
* Version 3.0
* TAIYO YUDEN Control No. 180123NI43EB-FBB
* Copyright(c) 2007 TAIYO YUDEN CO.,LTD. All Rights Reserved.
*--------------------------------------------------------------------------------------------------------
*
* Product Description (link to TY-COMPAS)
* https://ds.yuden.co.jp/TYCOMPAS/or/detail?pn=LLQNA201616T1R0M&u=M
*
* Products Name : Inductors
*
* Characteristics :
*     Inductance : 1.0 uH , SRF(min) : 100 MHz , DC Resistance(max) : 0.117 Ohm
*     Rated Current : Saturation :600 mA , Temp Rise : 1100 mA
*     Case Size : 2.0 x 1.6 / 0.079 x 0.063 [mm/inch] , Thickness : 1.6 / 0.063 [mm/inch]
*     (Conditions: Temperature = 25 degC , DC Bias Current/Voltage = 0A / 0V)
*
* External Node Assignments :
*
*  1  o---GGG---o  2
*
*--------------------------------------------------------------------------------------------------------
.SubCkt LLQNA201616T1R0 1 2
****************************
Rdc 1 101 0.09
L0 101 111 0.69437u
L1 111 121 0.20462u
R1 111 121 0.882
L2 121 131 0.17644u
R2 121 131 16.732
L3 131 2 0.084564u
R3 131 2 72.9
Rp 101 2 1.7k
Cp 101 2 0.23p
****************************
.ends LLQNA201616T1R0



* LLQNA201616T1R5     SPICE MODEL  ( General Type )
*--------------------------------------------------------------------------------------------------------
* Model Generated by TAIYO YUDEN Corporation (http://www.ty-top.com)
* Version 3.0
* TAIYO YUDEN Control No. 180123NI43EB-FBB
* Copyright(c) 2007 TAIYO YUDEN CO.,LTD. All Rights Reserved.
*--------------------------------------------------------------------------------------------------------
*
* Product Description (link to TY-COMPAS)
* https://ds.yuden.co.jp/TYCOMPAS/or/detail?pn=LLQNA201616T1R5M&u=M
*
* Products Name : Inductors
*
* Characteristics :
*     Inductance : 1.5 uH , SRF(min) : 80 MHz , DC Resistance(max) : 0.143 Ohm
*     Rated Current : Saturation :550 mA , Temp Rise : 1000 mA
*     Case Size : 2.0 x 1.6 / 0.079 x 0.063 [mm/inch] , Thickness : 1.6 / 0.063 [mm/inch]
*     (Conditions: Temperature = 25 degC , DC Bias Current/Voltage = 0A / 0V)
*
* External Node Assignments :
*
*  1  o---GGG---o  2
*
*--------------------------------------------------------------------------------------------------------
.SubCkt LLQNA201616T1R5 1 2
****************************
Rdc 1 101 0.11
L0 101 111 0.95445u
L1 111 121 0.31046u
R1 111 121 1.2348
L2 121 131 0.24095u
R2 121 131 21.904
L3 131 2 0.25414u
R3 131 2 577.6
Rp 101 2 2.6k
Cp 101 2 0.5p
****************************
.ends LLQNA201616T1R5



* LLQNA201616T2R2     SPICE MODEL  ( General Type )
*--------------------------------------------------------------------------------------------------------
* Model Generated by TAIYO YUDEN Corporation (http://www.ty-top.com)
* Version 3.0
* TAIYO YUDEN Control No. 180123NI43EB-FBB
* Copyright(c) 2007 TAIYO YUDEN CO.,LTD. All Rights Reserved.
*--------------------------------------------------------------------------------------------------------
*
* Product Description (link to TY-COMPAS)
* https://ds.yuden.co.jp/TYCOMPAS/or/detail?pn=LLQNA201616T2R2M&u=M
*
* Products Name : Inductors
*
* Characteristics :
*     Inductance : 2.2 uH , SRF(min) : 70 MHz , DC Resistance(max) : 0.169 Ohm
*     Rated Current : Saturation :510 mA , Temp Rise : 1000 mA
*     Case Size : 2.0 x 1.6 / 0.079 x 0.063 [mm/inch] , Thickness : 1.6 / 0.063 [mm/inch]
*     (Conditions: Temperature = 25 degC , DC Bias Current/Voltage = 0A / 0V)
*
* External Node Assignments :
*
*  1  o---GGG---o  2
*
*--------------------------------------------------------------------------------------------------------
.SubCkt LLQNA201616T2R2 1 2
****************************
Rdc 1 101 0.13
L0 101 111 1.7336u
L1 111 121 0.53621u
R1 111 121 2.4037
L2 121 131 0.41876u
R2 121 131 28.88
L3 131 2 0.21141u
R3 131 2 612.36
Rp 101 2 2.8k
Cp 101 2 1.44p
****************************
.ends LLQNA201616T2R2



* LLQNA201616T3R3     SPICE MODEL  ( General Type )
*--------------------------------------------------------------------------------------------------------
* Model Generated by TAIYO YUDEN Corporation (http://www.ty-top.com)
* Version 3.0
* TAIYO YUDEN Control No. 180123NI43EB-FBB
* Copyright(c) 2007 TAIYO YUDEN CO.,LTD. All Rights Reserved.
*--------------------------------------------------------------------------------------------------------
*
* Product Description (link to TY-COMPAS)
* https://ds.yuden.co.jp/TYCOMPAS/or/detail?pn=LLQNA201616T3R3M&u=M
*
* Products Name : Inductors
*
* Characteristics :
*     Inductance : 3.3 uH , SRF(min) : 55 MHz , DC Resistance(max) : 0.26 Ohm
*     Rated Current : Saturation :400 mA , Temp Rise : 800 mA
*     Case Size : 2.0 x 1.6 / 0.079 x 0.063 [mm/inch] , Thickness : 1.6 / 0.063 [mm/inch]
*     (Conditions: Temperature = 25 degC , DC Bias Current/Voltage = 0A / 0V)
*
* External Node Assignments :
*
*  1  o---GGG---o  2
*
*--------------------------------------------------------------------------------------------------------
.SubCkt LLQNA201616T3R3 1 2
****************************
Rdc 1 101 0.2
L0 101 111 2.9481u
L1 111 121 0.74441u
R1 111 121 3.528
L2 121 131 0.51695u
R2 121 131 36.75
L3 131 2 0.01055u
R3 131 2 50
Rp 101 2 4k
Cp 101 2 1.36p
****************************
.ends LLQNA201616T3R3



* LLQNA201616T4R7     SPICE MODEL  ( General Type )
*--------------------------------------------------------------------------------------------------------
* Model Generated by TAIYO YUDEN Corporation (http://www.ty-top.com)
* Version 3.0
* TAIYO YUDEN Control No. 180123NI43EB-FBB
* Copyright(c) 2007 TAIYO YUDEN CO.,LTD. All Rights Reserved.
*--------------------------------------------------------------------------------------------------------
*
* Product Description (link to TY-COMPAS)
* https://ds.yuden.co.jp/TYCOMPAS/or/detail?pn=LLQNA201616T4R7M&u=M
*
* Products Name : Inductors
*
* Characteristics :
*     Inductance : 4.7 uH , SRF(min) : 45 MHz , DC Resistance(max) : 0.325 Ohm
*     Rated Current : Saturation :340 mA , Temp Rise : 740 mA
*     Case Size : 2.0 x 1.6 / 0.079 x 0.063 [mm/inch] , Thickness : 1.6 / 0.063 [mm/inch]
*     (Conditions: Temperature = 25 degC , DC Bias Current/Voltage = 0A / 0V)
*
* External Node Assignments :
*
*  1  o---GGG---o  2
*
*--------------------------------------------------------------------------------------------------------
.SubCkt LLQNA201616T4R7 1 2
****************************
Rdc 1 101 0.25
L0 101 111 4.2938u
L1 111 121 0.97595u
R1 111 121 3.9998
L2 121 131 0.244u
R2 121 131 4.4
L3 131 2 0.58621u
R3 131 2 57.66
Rp 101 2 5.5k
Cp 101 2 1.45p
****************************
.ends LLQNA201616T4R7



* LLQNA201616T6R8     SPICE MODEL  ( General Type )
*--------------------------------------------------------------------------------------------------------
* Model Generated by TAIYO YUDEN Corporation (http://www.ty-top.com)
* Version 3.0
* TAIYO YUDEN Control No. 180123NI43EB-FBB
* Copyright(c) 2007 TAIYO YUDEN CO.,LTD. All Rights Reserved.
*--------------------------------------------------------------------------------------------------------
*
* Product Description (link to TY-COMPAS)
* https://ds.yuden.co.jp/TYCOMPAS/or/detail?pn=LLQNA201616T6R8M&u=M
*
* Products Name : Inductors
*
* Characteristics :
*     Inductance : 6.8 uH , SRF(min) : 38 MHz , DC Resistance(max) : 0.455 Ohm
*     Rated Current : Saturation :300 mA , Temp Rise : 600 mA
*     Case Size : 2.0 x 1.6 / 0.079 x 0.063 [mm/inch] , Thickness : 1.6 / 0.063 [mm/inch]
*     (Conditions: Temperature = 25 degC , DC Bias Current/Voltage = 0A / 0V)
*
* External Node Assignments :
*
*  1  o---GGG---o  2
*
*--------------------------------------------------------------------------------------------------------
.SubCkt LLQNA201616T6R8 1 2
****************************
Rdc 1 101 0.35
L0 101 111 6.1102u
L1 111 121 0.89494u
R1 111 121 2.0479
L2 121 131 0.89498u
R2 121 131 7.68
L3 131 2 0.83991u
R3 131 2 64.387
Rp 101 2 6.6k
Cp 101 2 1.82p
****************************
.ends LLQNA201616T6R8



* LLQNA201616T100     SPICE MODEL  ( General Type )
*--------------------------------------------------------------------------------------------------------
* Model Generated by TAIYO YUDEN Corporation (http://www.ty-top.com)
* Version 3.0
* TAIYO YUDEN Control No. 180123NI43EB-FBB
* Copyright(c) 2007 TAIYO YUDEN CO.,LTD. All Rights Reserved.
*--------------------------------------------------------------------------------------------------------
*
* Product Description (link to TY-COMPAS)
* https://ds.yuden.co.jp/TYCOMPAS/or/detail?pn=LLQNA201616T100K&u=M
*
* Products Name : Inductors
*
* Characteristics :
*     Inductance : 10 uH , SRF(min) : 32 MHz , DC Resistance(max) : 0.65 Ohm
*     Rated Current : Saturation :250 mA , Temp Rise : 520 mA
*     Case Size : 2.0 x 1.6 / 0.079 x 0.063 [mm/inch] , Thickness : 1.6 / 0.063 [mm/inch]
*     (Conditions: Temperature = 25 degC , DC Bias Current/Voltage = 0A / 0V)
*
* External Node Assignments :
*
*  1  o---GGG---o  2
*
*--------------------------------------------------------------------------------------------------------
.SubCkt LLQNA201616T100 1 2
****************************
Rdc 1 101 0.5
L0 101 111 9.0519u
L1 111 121 1.4658u
R1 111 121 1.6335
L2 121 131 1.6488u
R2 121 131 9.8
L3 131 2 1.2935u
R3 131 2 96.1
Rp 101 2 8.4k
Cp 101 2 1.82p
****************************
.ends LLQNA201616T100



* LLQNA201616T150     SPICE MODEL  ( General Type )
*--------------------------------------------------------------------------------------------------------
* Model Generated by TAIYO YUDEN Corporation (http://www.ty-top.com)
* Version 3.0
* TAIYO YUDEN Control No. 180123NI43EB-FBB
* Copyright(c) 2007 TAIYO YUDEN CO.,LTD. All Rights Reserved.
*--------------------------------------------------------------------------------------------------------
*
* Product Description (link to TY-COMPAS)
* https://ds.yuden.co.jp/TYCOMPAS/or/detail?pn=LLQNA201616T150K&u=M
*
* Products Name : Inductors
*
* Characteristics :
*     Inductance : 15 uH , SRF(min) : 28 MHz , DC Resistance(max) : 0.91 Ohm
*     Rated Current : Saturation :210 mA , Temp Rise : 440 mA
*     Case Size : 2.0 x 1.6 / 0.079 x 0.063 [mm/inch] , Thickness : 1.6 / 0.063 [mm/inch]
*     (Conditions: Temperature = 25 degC , DC Bias Current/Voltage = 0A / 0V)
*
* External Node Assignments :
*
*  1  o---GGG---o  2
*
*--------------------------------------------------------------------------------------------------------
.SubCkt LLQNA201616T150 1 2
****************************
Rdc 1 101 0.7
L0 101 111 13.912u
L1 111 121 1.2956u
R1 111 121 0.625
L2 121 131 3.6568u
R2 121 131 17.641
L3 131 2 1.8657u
R3 131 2 126
Rp 101 2 13k
Cp 101 2 1.7p
****************************
.ends LLQNA201616T150



* LLQNA201616T220     SPICE MODEL  ( General Type )
*--------------------------------------------------------------------------------------------------------
* Model Generated by TAIYO YUDEN Corporation (http://www.ty-top.com)
* Version 3.0
* TAIYO YUDEN Control No. 180123NI43EB-FBB
* Copyright(c) 2007 TAIYO YUDEN CO.,LTD. All Rights Reserved.
*--------------------------------------------------------------------------------------------------------
*
* Product Description (link to TY-COMPAS)
* https://ds.yuden.co.jp/TYCOMPAS/or/detail?pn=LLQNA201616T220K&u=M
*
* Products Name : Inductors
*
* Characteristics :
*     Inductance : 22 uH , SRF(min) : 16 MHz , DC Resistance(max) : 1.3 Ohm
*     Rated Current : Saturation :165 mA , Temp Rise : 370 mA
*     Case Size : 2.0 x 1.6 / 0.079 x 0.063 [mm/inch] , Thickness : 1.6 / 0.063 [mm/inch]
*     (Conditions: Temperature = 25 degC , DC Bias Current/Voltage = 0A / 0V)
*
* External Node Assignments :
*
*  1  o---GGG---o  2
*
*--------------------------------------------------------------------------------------------------------
.SubCkt LLQNA201616T220 1 2
****************************
Rdc 1 101 1
L0 101 111 19.742u
L1 111 121 1.5029u
R1 111 121 0.529
L2 121 131 4.7756u
R2 121 131 25.215
L3 131 2 2.3892u
R3 131 2 285.93
Rp 101 2 18.5k
Cp 101 2 1.55p
****************************
.ends LLQNA201616T220



* LLQNA201616T330     SPICE MODEL  ( General Type )
*--------------------------------------------------------------------------------------------------------
* Model Generated by TAIYO YUDEN Corporation (http://www.ty-top.com)
* Version 3.0
* TAIYO YUDEN Control No. 180123NI43EB-FBB
* Copyright(c) 2007 TAIYO YUDEN CO.,LTD. All Rights Reserved.
*--------------------------------------------------------------------------------------------------------
*
* Product Description (link to TY-COMPAS)
* https://ds.yuden.co.jp/TYCOMPAS/or/detail?pn=LLQNA201616T330K&u=M
*
* Products Name : Inductors
*
* Characteristics :
*     Inductance : 33 uH , SRF(min) : 14 MHz , DC Resistance(max) : 2.21 Ohm
*     Rated Current : Saturation :130 mA , Temp Rise : 270 mA
*     Case Size : 2.0 x 1.6 / 0.079 x 0.063 [mm/inch] , Thickness : 1.6 / 0.063 [mm/inch]
*     (Conditions: Temperature = 25 degC , DC Bias Current/Voltage = 0A / 0V)
*
* External Node Assignments :
*
*  1  o---GGG---o  2
*
*--------------------------------------------------------------------------------------------------------
.SubCkt LLQNA201616T330 1 2
****************************
Rdc 1 101 1.7
L0 101 111 31.012u
L1 111 121 1.8389u
R1 111 121 0.441
L2 121 131 7.0098u
R2 121 131 33.62
L3 131 2 1.839u
R3 131 2 92.61
Rp 101 2 18.6k