Version 4
SHEET 1 1312 680
WIRE 464 -624 320 -624
WIRE 672 -624 544 -624
WIRE 176 -336 -128 -336
WIRE 320 -336 320 -624
WIRE 320 -336 256 -336
WIRE 432 -336 320 -336
WIRE 432 -320 432 -336
WIRE 464 -320 432 -320
WIRE -128 -304 -128 -336
WIRE 672 -304 672 -624
WIRE 672 -304 592 -304
WIRE 688 -304 672 -304
WIRE 784 -304 768 -304
WIRE 848 -304 784 -304
WIRE 880 -304 848 -304
WIRE 464 -288 432 -288
WIRE 176 -272 -32 -272
WIRE 320 -272 256 -272
WIRE 432 -272 432 -288
WIRE 432 -272 320 -272
WIRE 848 -256 848 -304
WIRE -32 -160 -32 -272
WIRE 320 -96 320 -272
WIRE 544 0 544 -32
WIRE 784 16 784 -304
WIRE 784 16 624 16
WIRE 624 32 624 16
WIRE 624 32 608 32
WIRE 320 48 320 -16
WIRE 400 48 320 48
WIRE 480 48 400 48
WIRE 624 64 608 64
WIRE 624 80 624 64
WIRE 720 80 624 80
WIRE 544 128 544 112
WIRE 400 272 400 48
WIRE 720 272 720 80
WIRE 720 272 400 272
FLAG 528 -256 0
FLAG 528 -368 3V3
FLAG -304 -144 3V3
FLAG -304 -64 0
FLAG 880 -304 out
FLAG 848 -176 0
FLAG 544 -32 0
FLAG 544 128 3V3
FLAG -32 -80 0
FLAG -128 -304 0
SYMBOL voltage -304 -160 R0
WINDOW 123 0 0 Left 0
WINDOW 39 0 0 Left 0
SYMATTR InstName V2
SYMATTR Value 3.3
SYMBOL res 784 -320 R90
WINDOW 0 0 56 VBottom 2
WINDOW 3 32 56 VTop 2
SYMATTR InstName R5
SYMATTR Value 10
SYMATTR SpiceLine tol=1
SYMBOL res 832 -272 R0
SYMATTR InstName R6
SYMATTR Value {R}
SYMBOL res 560 -640 R90
WINDOW 0 0 56 VBottom 2
WINDOW 3 32 56 VTop 2
SYMATTR InstName R1
SYMATTR Value 50k
SYMATTR SpiceLine tol=0.1
SYMBOL res 272 -352 R90
WINDOW 0 -4 89 VBottom 2
WINDOW 3 -34 34 VTop 2
SYMATTR InstName R2
SYMATTR Value 50k
SYMATTR SpiceLine tol=0.1
SYMBOL res 272 -288 R90
WINDOW 0 63 87 VBottom 2
WINDOW 3 35 39 VTop 2
SYMATTR InstName R3
SYMATTR Value 50k
SYMATTR SpiceLine tol=0.1
SYMBOL res 304 -112 R0
SYMATTR InstName R4
SYMATTR Value 50k
SYMATTR SpiceLine tol=0.1
SYMBOL voltage -32 -176 R0
WINDOW 123 0 0 Left 0
WINDOW 39 0 0 Left 0
SYMATTR InstName V1
SYMATTR Value {V1}
SYMBOL AutoGenerated\\TSV3x 528 -304 R0
SYMATTR InstName U3
SYMBOL AutoGenerated\\TSV3x 544 48 R180
SYMATTR InstName U4
TEXT -64 16 Left 2 !.param R=60
TEXT -58 70 Left 2 !.op
TEXT -56 120 Left 2 !.step param V1 0 0.3 0.05
