Version 4
SHEET 1 880 680
WIRE 64 192 -16 192
WIRE 144 192 64 192
WIRE -16 208 -16 192
WIRE 352 208 272 208
WIRE 64 352 64 192
WIRE 352 352 352 208
WIRE 352 352 64 352
FLAG 272 144 0
FLAG 272 176 -33V
FLAG -384 448 0
FLAG -288 448 0
FLAG -384 368 -33V
FLAG -288 368 VIN
FLAG 432 272 0
FLAG 144 160 0
FLAG -16 208 VIN
DATAFLAG 432 208 ""
SYMBOL AutoGenerated\\LMX58_LM2904 208 176 R0
SYMATTR InstName U1
SYMBOL res 448 192 R90
WINDOW 0 0 56 VBottom 2
WINDOW 3 32 56 VTop 2
SYMATTR InstName R1
SYMATTR Value 1k
SYMBOL voltage -384 352 R0
WINDOW 123 0 0 Left 0
WINDOW 39 0 0 Left 0
SYMATTR InstName V1
SYMATTR Value -33
SYMBOL voltage -288 352 R0
WINDOW 123 0 0 Left 0
WINDOW 39 0 0 Left 0
SYMATTR InstName V2
SYMATTR Value SINE(-15 -15 100 0 0 0 1)
SYMBOL cap 416 208 R0
SYMATTR InstName C1
SYMATTR Value 1µ
TEXT -418 472 Left 2 !.tran 10m
