Version 4
SHEET 1 880 680
WIRE -144 16 -320 16
WIRE -96 16 -144 16
WIRE -32 16 -96 16
WIRE 144 16 32 16
WIRE 160 16 144 16
WIRE 240 16 224 16
WIRE 336 16 240 16
WIRE 480 16 400 16
WIRE 592 16 480 16
WIRE 752 16 592 16
WIRE 480 64 480 16
WIRE 592 80 592 16
WIRE 144 96 144 16
WIRE 240 96 240 16
WIRE -144 128 -144 16
WIRE -320 144 -320 16
WIRE 752 144 752 16
WIRE -96 160 -96 16
WIRE 80 160 -96 160
WIRE 400 160 304 160
WIRE 480 160 480 144
WIRE 480 160 400 160
WIRE 592 160 592 144
WIRE 592 160 480 160
WIRE 400 176 400 160
WIRE 400 272 400 256
WIRE 400 272 304 272
WIRE -320 336 -320 224
WIRE -144 336 -144 192
WIRE -144 336 -320 336
WIRE 192 336 192 320
WIRE 192 336 -144 336
WIRE 752 336 752 208
WIRE 752 336 192 336
WIRE 192 368 192 336
FLAG 192 368 0
SYMBOL PowerProducts\\LT3462A 192 192 R0
SYMATTR InstName U1
SYMBOL AutoGenerated\\LLQPA322525T220_R 0 16 R0
SYMATTR InstName U2
SYMBOL AutoGenerated\\LLQPA322525T220_R 368 16 R0
SYMATTR InstName U3
SYMBOL cap 224 0 R90
WINDOW 0 0 32 VBottom 2
WINDOW 3 32 32 VTop 2
SYMATTR InstName C1
SYMATTR Value 1µ
SYMBOL cap -128 192 R180
WINDOW 0 24 56 Left 2
WINDOW 3 24 8 Left 2
SYMATTR InstName C2
SYMATTR Value 1µ
SYMBOL cap 608 144 R180
WINDOW 0 24 56 Left 2
WINDOW 3 24 8 Left 2
SYMATTR InstName C3
SYMATTR Value 22p
SYMBOL cap 768 208 R180
WINDOW 0 24 56 Left 2
WINDOW 3 24 8 Left 2
SYMATTR InstName C4
SYMATTR Value 1µ
SYMBOL res 384 160 R0
SYMATTR InstName R1
SYMATTR Value 18k
SYMATTR SpiceLine tol=5
SYMBOL res 464 48 R0
SYMATTR InstName R2
SYMATTR Value 470k
SYMATTR SpiceLine tol=5
SYMBOL voltage -320 128 R0
WINDOW 3 24 44 Left 2
WINDOW 123 0 0 Left 0
WINDOW 39 0 0 Left 0
SYMATTR InstName V1
SYMATTR Value 5
TEXT -184 392 Left 2 !.tran 1
